# CIF file created by FINDSYM, version 7.1.3

data_findsym-output
_audit_creation_method FINDSYM

_cell_length_a    11.7552000000
_cell_length_b    7.1394100000
_cell_length_c    17.1714000000
_cell_angle_alpha 90.0000000000
_cell_angle_beta  90.0000000000
_cell_angle_gamma 90.0000000000
_cell_volume      1441.1130493268

_symmetry_space_group_name_H-M "P 21/b 21/c 21/a"
_symmetry_Int_Tables_number 61
_space_group.reference_setting '061:-P 2ac 2ab'
_space_group.transform_Pp_abc a,b,c;0,0,0

loop_
_space_group_symop_id
_space_group_symop_operation_xyz
1 x,y,z
2 x+1/2,-y+1/2,-z
3 -x,y+1/2,-z+1/2
4 -x+1/2,-y,z+1/2
5 -x,-y,-z
6 -x+1/2,y+1/2,z
7 x,-y+1/2,z+1/2
8 x+1/2,y,-z+1/2

loop_
_atom_site_label
_atom_site_type_symbol
_atom_site_symmetry_multiplicity
_atom_site_Wyckoff_label
_atom_site_fract_x
_atom_site_fract_y
_atom_site_fract_z
_atom_site_occupancy
_atom_site_fract_symmform
O1 O   8 c 0.76025  0.73972 0.63053  1.00000 Dx,Dy,Dz 
H1 H   8 c 0.80420  0.72890 0.59220  1.00000 Dx,Dy,Dz 
O2 O   8 c 0.89318  0.76935 0.00183  1.00000 Dx,Dy,Dz 
N1 N   8 c 0.01725  0.70624 -0.09650 1.00000 Dx,Dy,Dz 
H2 H   8 c 0.08930  0.68210 0.89390  1.00000 Dx,Dy,Dz 
C1 C   8 c 0.82166  0.72493 0.69834  1.00000 Dx,Dy,Dz 
C2 C   8 c -0.05534 0.70849 0.83742  1.00000 Dx,Dy,Dz 
C3 C   8 c 0.83638  0.78808 0.83644  1.00000 Dx,Dy,Dz 
H3 H   8 c 0.80440  0.83680 0.88300  1.00000 Dx,Dy,Dz 
C4 C   8 c 0.77493  0.79623 0.76692  1.00000 Dx,Dy,Dz 
H4 H   8 c 0.70110  0.85040 0.76630  1.00000 Dx,Dy,Dz 
C5 C   8 c 0.09168  0.72796 0.03358  1.00000 Dx,Dy,Dz 
H5 H   8 c 0.11990  0.85510 0.04310  1.00000 Dx,Dy,Dz 
H6 H   8 c 0.15210  0.65240 0.01000  1.00000 Dx,Dy,Dz 
H7 H   8 c 0.06840  0.67110 0.08300  1.00000 Dx,Dy,Dz 
C6 C   8 c -0.07226 0.63928 0.69998  1.00000 Dx,Dy,Dz 
H8 H   8 c -0.04170 0.58590 0.65380  1.00000 Dx,Dy,Dz 
C7 C   8 c -0.00906 0.73604 -0.02094 1.00000 Dx,Dy,Dz 
C8 C   8 c -0.01075 0.63160 0.76902  1.00000 Dx,Dy,Dz 
H9 H   8 c 0.06200  0.57380 0.76980  1.00000 Dx,Dy,Dz 

# end of cif
